src/test/resources/netPositionsData/20190618_0030_2D2_NL0.uct
##C 2007.05.01

##N
##ZNL
ASLACK11 SLACK        0 2 400.00    0.00    0.00    0.00    0.00    0.00    0.00                                        
ALOAD111 LOAD         1 2 400.00    0.00    0.00 2128.81    0.00    0.00    0.00                                        
AVY_MB11 SHADOW       1 2 400.00    0.00    0.00    0.00    0.00 -2560.8    0.00
AED_EE11 SHADOW       1 2 400.00    0.00    0.00    0.00    0.00  431.99    0.00
##ZXX
XVY_MB11 CORE         1 0 400.00    0.00    0.00    0.00    0.00    0.00    0.00                                        
XED_EE1D VIRTHUB      1 0 400.00    0.00    0.00    0.00    0.00    0.00    0.00                                        
##L
AVY_MB11 XVY_MB11 1 0   0.00   0.00    0.00   5000
AED_EE11 XED_EE1D 1 0   0.00   0.00    0.00   5000
##T
##R
